units(length='cm', time='s', quantity='mol', act_energy='cal/mol')

ideal_gas(name='gas',
          elements="H C O N",
          species="""C7H16       O2          N2          CO2
                     H2O         CO          H2          CH4
                     C2H2        C2H4        H2O2        HO2
                     OH          H           O           CH3
                     CH3O        CH2         CH2O        CH3O2
                     CH4O2       HCO         C7H15-1     C7H15-2
                     C7H15O2     C7H14O2H    C7H14O2HO2  C7KET12
                     C6H12       C5H11CHO    C5H11CO     C5H11
                     C4H9        C3H7        C3H6        C3H5
                     C3H4        C2H3        C2H5        C2H6
                     NO          N           C(s)""",
          reactions='all',
          initial_state=state(temperature=300.0, pressure=OneAtm))

#-------------------------------------------------------------------------------
# Species data
#-------------------------------------------------------------------------------

species(name='C7H16',
        atoms='C:7 H:16',
        thermo=(NASA([300.00, 1391.00],
                     [-1.26836187E+00,  8.54355820E-02, -5.25346786E-05,
                       1.62945721E-08, -2.02394925E-12, -2.56586565E+04,
                       3.53732912E+01]),
                NASA([1391.00, 5000.00],
                     [ 2.22148969E+01,  3.47675750E-02, -1.18407129E-05,
                       1.83298478E-09, -1.06130266E-13, -3.42760081E+04,
                      -9.23040196E+01])))

species(name='O2',
        atoms='O:2',
        thermo=(NASA([300.00, 1000.00],
                     [ 3.21293600E+00,  1.12748600E-03, -5.75615000E-07,
                       1.31387700E-09, -8.76855400E-13, -1.00524900E+03,
                       6.03473800E+00]),
                NASA([1000.00, 5000.00],
                     [ 3.69757800E+00,  6.13519700E-04, -1.25884200E-07,
                       1.77528100E-11, -1.13643500E-15, -1.23393000E+03,
                       3.18916600E+00])))

species(name='N2',
        atoms='N:2',
        thermo=(NASA([300.00, 1000.00],
                     [ 3.29867700E+00,  1.40824000E-03, -3.96322200E-06,
                       5.64151500E-09, -2.44485500E-12, -1.02090000E+03,
                       3.95037200E+00]),
                NASA([1000.00, 5000.00],
                     [ 2.92664000E+00,  1.48797700E-03, -5.68476100E-07,
                       1.00970400E-10, -6.75335100E-15, -9.22797700E+02,
                       5.98052800E+00])))

species(name='CO2',
        atoms='C:1 O:2',
        thermo=(NASA([300.00, 1000.00],
                     [ 2.27572500E+00,  9.92207200E-03, -1.04091100E-05,
                       6.86668700E-09, -2.11728000E-12, -4.83731400E+04,
                       1.01884900E+01]),
                NASA([1000.00, 5000.00],
                     [ 4.45362300E+00,  3.14016900E-03, -1.27841100E-06,
                       2.39399700E-10, -1.66903300E-14, -4.89669600E+04,
                      -9.55395900E-01])))

species(name='H2O',
        atoms='H:2 O:1',
        thermo=(NASA([300.00, 1000.00],
                     [ 3.38684200E+00,  3.47498200E-03, -6.35469600E-06,
                       6.96858100E-09, -2.50658800E-12, -3.02081100E+04,
                       2.59023300E+00]),
                NASA([1000.00, 5000.00],
                     [ 2.67214600E+00,  3.05629300E-03, -8.73026000E-07,
                       1.20099600E-10, -6.39161800E-15, -2.98992100E+04,
                       6.86281700E+00])))

species(name='CO',
        atoms='C:1 O:1',
        thermo=(NASA([300.00, 1000.00],
                     [ 3.26245200E+00,  1.51194100E-03, -3.88175500E-06,
                       5.58194400E-09, -2.47495100E-12, -1.43105400E+04,
                       4.84889700E+00]),
                NASA([1000.00, 5000.00],
                     [ 3.02507800E+00,  1.44268900E-03, -5.63082800E-07,
                       1.01858100E-10, -6.91095200E-15, -1.42683500E+04,
                       6.10821800E+00])))

species(name='H2',
        atoms='H:2',
        thermo=(NASA([300.00, 1000.00],
                     [ 3.29812400E+00,  8.24944200E-04, -8.14301500E-07,
                      -9.47543400E-11,  4.13487200E-13, -1.01252100E+03,
                      -3.29409400E+00]),
                NASA([1000.00, 5000.00],
                     [ 2.99142300E+00,  7.00064400E-04, -5.63382900E-08,
                      -9.23157800E-12,  1.58275200E-15, -8.35034000E+02,
                      -1.35511000E+00])))

species(name='CH4',
        atoms='C:1 H:4',
        thermo=(NASA([300.00, 1000.00],
                     [ 7.78741500E-01,  1.74766800E-02, -2.78340900E-05,
                       3.04970800E-08, -1.22393100E-11, -9.82522900E+03,
                       1.37221900E+01]),
                NASA([1000.00, 5000.00],
                     [ 1.68347900E+00,  1.02372400E-02, -3.87512900E-06,
                       6.78558500E-10, -4.50342300E-14, -1.00807900E+04,
                       9.62339500E+00])))

species(name='C2H2',
        atoms='C:2 H:2',
        thermo=(NASA([300.00, 1000.00],
                     [ 2.01356200E+00,  1.51904500E-02, -1.61631900E-05,
                       9.07899200E-09, -1.91274600E-12,  2.61244400E+04,
                       8.80537800E+00]),
                NASA([1000.00, 5000.00],
                     [ 4.43677000E+00,  5.37603900E-03, -1.91281700E-06,
                       3.28637900E-10, -2.15671000E-14,  2.56676600E+04,
                      -2.80033800E+00])))

species(name='C2H4',
        atoms='C:2 H:4',
        thermo=(NASA([300.00, 1000.00],
                     [-8.61488000E-01,  2.79616300E-02, -3.38867700E-05,
                       2.78515200E-08, -9.73787900E-12,  5.57304600E+03,
                       2.42114900E+01]),
                NASA([1000.00, 5000.00],
                     [ 3.52841900E+00,  1.14851800E-02, -4.41838500E-06,
                       7.84460100E-10, -5.26684800E-14,  4.42828900E+03,
                       2.23038900E+00])))

species(name='H2O2',
        atoms='H:2 O:2',
        thermo=(NASA([300.00, 1000.00],
                     [ 3.38875400E+00,  6.56922600E-03, -1.48501300E-07,
                      -4.62580600E-09,  2.47151500E-12, -1.76631500E+04,
                       6.78536300E+00]),
                NASA([1000.00, 5000.00],
                     [ 4.57316700E+00,  4.33613600E-03, -1.47468900E-06,
                       2.34890400E-10, -1.43165400E-14, -1.80069600E+04,
                       5.01137000E-01])))

species(name='HO2',
        atoms='H:1 O:2',
        thermo=(NASA([300.00, 1000.00],
                     [ 2.97996300E+00,  4.99669700E-03, -3.79099700E-06,
                       2.35419200E-09, -8.08902400E-13,  1.76227400E+02,
                       9.22272400E+00]),
                NASA([1000.00, 5000.00],
                     [ 4.07219100E+00,  2.13129600E-03, -5.30814500E-07,
                       6.11226900E-11, -2.84116500E-15, -1.57972700E+02,
                       3.47602900E+00])))

species(name='OH',
        atoms='O:1 H:1',
        thermo=(NASA([300.00, 1000.00],
                     [ 3.63726600E+00,  1.85091000E-04, -1.67616500E-06,
                       2.38720300E-09, -8.43144200E-13,  3.60678200E+03,
                       1.35886000E+00]),
                NASA([1000.00, 5000.00],
                     [ 2.88273000E+00,  1.01397400E-03, -2.27687700E-07,
                       2.17468400E-11, -5.12630500E-16,  3.88688800E+03,
                       5.59571200E+00])))

species(name='H',
        atoms='H:1',
        thermo=(NASA([300.00, 1000.00],
                     [ 2.50000000E+00,  0.00000000E+00,  0.00000000E+00,
                       0.00000000E+00,  0.00000000E+00,  2.54716300E+04,
                      -4.60117600E-01]),
                NASA([1000.00, 5000.00],
                     [ 2.50000000E+00,  0.00000000E+00,  0.00000000E+00,
                       0.00000000E+00,  0.00000000E+00,  2.54716300E+04,
                      -4.60117600E-01])))

species(name='O',
        atoms='O:1',
        thermo=(NASA([300.00, 1000.00],
                     [ 2.94642900E+00, -1.63816600E-03,  2.42103200E-06,
                      -1.60284300E-09,  3.89069600E-13,  2.91476400E+04,
                       2.96399500E+00]),
                NASA([1000.00, 5000.00],
                     [ 2.54206000E+00, -2.75506200E-05, -3.10280300E-09,
                       4.55106700E-12, -4.36805200E-16,  2.92308000E+04,
                       4.92030800E+00])))

species(name='CH3',
        atoms='C:1 H:3',
        thermo=(NASA([300.00, 1000.00],
                     [ 2.43044300E+00,  1.11241000E-02, -1.68022000E-05,
                       1.62182900E-08, -5.86495300E-12,  1.64237800E+04,
                       6.78979400E+00]),
                NASA([1000.00, 5000.00],
                     [ 2.84405200E+00,  6.13797400E-03, -2.23034500E-06,
                       3.78516100E-10, -2.45215900E-14,  1.64378100E+04,
                       5.45269700E+00])))

species(name='CH3O',
        atoms='C:1 H:3 O:1',
        thermo=(NASA([300.00, 1000.00],
                     [ 2.10620400E+00,  7.21659500E-03,  5.33847200E-06,
                      -7.37763600E-09,  2.07561100E-12,  9.78601100E+02,
                       1.31521800E+01]),
                NASA([1000.00, 3000.00],
                     [ 3.77080000E+00,  7.87149700E-03, -2.65638400E-06,
                       3.94443100E-10, -2.11261600E-14,  1.27832500E+02,
                       2.92957500E+00])))

species(name='CH2',
        atoms='C:1 H:2',
        thermo=(NASA([250.00, 1000.00],
                     [ 3.76223700E+00,  1.15981900E-03,  2.48958500E-07,
                       8.80083600E-10, -7.33243500E-13,  4.53679100E+04,
                       1.71257800E+00]),
                NASA([1000.00, 4000.00],
                     [ 3.63640800E+00,  1.93305700E-03, -1.68701600E-07,
                      -1.00989900E-10,  1.80825600E-14,  4.53413400E+04,
                       2.15656100E+00])))

species(name='CH2O',
        atoms='C:1 H:2 O:1',
        thermo=(NASA([300.00, 1000.00],
                     [ 1.65273100E+00,  1.26314400E-02, -1.88816800E-05,
                       2.05003100E-08, -8.41323700E-12, -1.48654000E+04,
                       1.37848200E+01]),
                NASA([1000.00, 5000.00],
                     [ 2.99560600E+00,  6.68132100E-03, -2.62895500E-06,
                       4.73715300E-10, -3.21251700E-14, -1.53203700E+04,
                       6.91257200E+00])))

species(name='CH3O2',
        atoms='C:1 H:3 O:2',
        thermo=(NASA([300.00, 1385.00],
                     [ 4.26146906E+00,  1.00873599E-02, -3.21506184E-06,
                       2.09409267E-10,  4.18339103E-14,  4.73129653E+02,
                       6.34599067E+00]),
                NASA([1385.00, 5000.00],
                     [ 5.95787891E+00,  7.90728626E-03, -2.68246234E-06,
                       4.13891337E-10, -2.39007330E-14, -3.78224468E+02,
                      -3.53695139E+00])))

species(name='CH4O2',
        atoms='C:1 H:4 O:2',
        thermo=(NASA([200.00, 1000.00],
                     [ 3.72654981E+00,  7.51851847E-03,  2.35970425E-05,
                      -3.52694507E-08,  1.42757614E-11, -1.83982011E+04,
                       6.52443362E+00]),
                NASA([1000.00, 6000.00],
                     [ 6.86907934E+00,  1.00840883E-02, -3.66515947E-06,
                       5.96302681E-10, -3.58894156E-14, -1.98402231E+04,
                      -1.24951986E+01])))

species(name='HCO',
        atoms='H:1 C:1 O:1',
        thermo=(NASA([300.00, 1000.00],
                     [ 2.89833000E+00,  6.19914700E-03, -9.62308400E-06,
                       1.08982500E-08, -4.57488500E-12,  4.15992200E+03,
                       8.98361400E+00]),
                NASA([1000.00, 5000.00],
                     [ 3.55727100E+00,  3.34557300E-03, -1.33500600E-06,
                       2.47057300E-10, -1.71385100E-14,  3.91632400E+03,
                       5.55229900E+00])))

species(name='C7H15-1',
        atoms='C:7 H:15',
        thermo=(NASA([300.00, 1390.00],
                     [-4.99570406E-01,  8.08826467E-02, -5.00532754E-05,
                       1.56549308E-08, -1.96616227E-12, -1.04590223E+03,
                       3.46564011E+01]),
                NASA([1390.00, 5000.00],
                     [ 2.17940709E+01,  3.26280243E-02, -1.11138244E-05,
                       1.72067148E-09, -9.96366999E-14, -9.20938221E+03,
                      -8.64954311E+01])))

species(name='C7H15-2',
        atoms='C:7 H:15',
        thermo=(NASA([300.00, 1382.00],
                     [-3.79155767E-02,  7.56726570E-02, -4.07473634E-05,
                       9.32678943E-09, -4.92360745E-13, -2.35605303E+03,
                       3.37321506E+01]),
                NASA([1382.00, 5000.00],
                     [ 2.16368842E+01,  3.23324804E-02, -1.09273807E-05,
                       1.68357060E-09, -9.71774091E-14, -1.05873616E+04,
                      -8.52209653E+01])))

species(name='C7H15O2',
        atoms='C:7 H:15 O:2',
        thermo=(NASA([300.00, 1389.65],
                     [ 2.37499334E+00,  8.34651906E-02, -5.13897320E-05,
                       1.64217662E-08, -2.19505216E-12, -1.99237961E+04,
                       2.53067342E+01]),
                NASA([1389.65, 5000.00],
                     [ 2.49023689E+01,  3.50716920E-02, -1.20440306E-05,
                       1.87464822E-09, -1.08947791E-13, -2.82976050E+04,
                      -9.73923542E+01])))

species(name='C7H14O2H',
        atoms='C:7 H:15 O:2',
        thermo=(NASA([300.00, 1384.04],
                     [ 2.49875186E+00,  8.32443344E-02, -4.85933986E-05,
                       1.28927950E-08, -1.09878385E-12, -1.36530733E+04,
                       2.73754005E+01]),
                NASA([1384.04, 5000.00],
                     [ 2.70028807E+01,  3.22272216E-02, -1.09366516E-05,
                       1.68977918E-09, -9.77321946E-14, -2.27229231E+04,
                      -1.06332170E+02])))

species(name='C7H14O2HO2',
        atoms='C:7 H:15 O:4',
        thermo=(NASA([300.00, 1388.84],
                     [ 3.84933185E+00,  9.45955097E-02, -5.94934121E-05,
                       1.78836457E-08, -2.00618696E-12, -3.32051631E+04,
                       2.25912030E+01]),
                NASA([1388.84, 5000.00],
                     [ 3.23937788E+01,  3.33911097E-02, -1.15672104E-05,
                       1.81146023E-09, -1.05739941E-13, -4.36321048E+04,
                      -1.32597311E+02])))

species(name='C7KET12',
        atoms='C:7 H:14 O:3',
        thermo=(NASA([300.00, 1395.53],
                     [ 5.82433697E-01,  1.01207869E-01, -7.65855996E-05,
                       3.00738606E-08, -4.82902792E-12, -4.68054419E+04,
                       3.33331449E+01]),
                NASA([1395.53, 5000.00],
                     [ 2.97472906E+01,  3.06622294E-02, -1.05563590E-05,
                       1.64627343E-09, -9.58171675E-14, -5.66856828E+04,
                      -1.22432490E+02])))

species(name='C6H12',
        atoms='C:6 H:12',
        thermo=(NASA([300.00, 1392.31],
                     [-1.35275205E+00,  6.98655426E-02, -4.59408022E-05,
                       1.56967343E-08, -2.21296175E-12, -7.34368617E+03,
                       3.53120691E+01]),
                NASA([1392.31, 5000.00],
                     [ 1.78337529E+01,  2.67377658E-02, -9.10036773E-06,
                       1.40819768E-09, -8.15124244E-14, -1.42062860E+04,
                      -6.83818851E+01])))

species(name='C5H11CHO',
        atoms='C:6 H:12 O:1',
        thermo=(NASA([300.00, 1383.73],
                     [ 1.37517192E+00,  6.65669689E-02, -4.04423050E-05,
                       1.23836270E-08, -1.52905857E-12, -3.28740986E+04,
                       2.48343934E+01]),
                NASA([1383.73, 5000.00],
                     [ 1.98891043E+01,  2.71869340E-02, -9.27391515E-06,
                       1.43744158E-09, -8.33090761E-14, -3.97523444E+04,
                      -7.60741671E+01])))

species(name='C5H11CO',
        atoms='C:6 H:11 O:1',
        thermo=(NASA([300.00, 1382.89],
                     [ 2.14479069E+00,  6.17863563E-02, -3.74134690E-05,
                       1.13283795E-08, -1.36917698E-12, -1.43451172E+04,
                       2.23128045E+01]),
                NASA([1382.89, 5000.00],
                     [ 1.94783812E+01,  2.50466029E-02, -8.54861346E-06,
                       1.32557944E-09, -7.68503296E-14, -2.07923937E+04,
                      -7.21995578E+01])))

species(name='C5H11',
        atoms='C:5 H:11',
        thermo=(NASA([298.15, 1034.05],
                     [ 3.57867617E+00,  3.04236365E-02,  3.27768270E-05,
                      -5.86453147E-08,  2.39315107E-11, -2.60420265E+03,
                       1.42591121E+01]),
                NASA([1034.05, 5000.00],
                     [ 1.13324106E+01,  3.03659897E-02, -1.13934480E-05,
                       1.99539733E-09, -1.32825012E-13, -5.95299959E+03,
                      -3.13564905E+01])))

species(name='C4H9',
        atoms='C:4 H:9',
        thermo=(NASA([200.00, 1000.00],
                     [ 3.54885235E+00,  1.78747638E-02,  5.00782825E-05,
                      -7.94475071E-08,  3.35802354E-11,  4.74011588E+03,
                       1.11849382E+01]),
                NASA([1000.00, 6000.00],
                     [ 9.43040607E+00,  2.34271349E-02, -8.53599182E-06,
                       1.39748355E-09, -8.44057456E-14,  2.14214862E+03,
                      -2.42207994E+01])))

species(name='C3H7',
        atoms='C:3 H:7',
        thermo=(NASA([300.00, 1000.00],
                     [ 1.05155180E+00,  2.59919800E-02,  2.38005400E-06,
                      -1.96095690E-08,  9.37324700E-12,  1.06318630E+04,
                       2.11225590E+01]),
                NASA([1000.00, 5000.00],
                     [ 7.70269870E+00,  1.60442030E-02, -5.28332200E-06,
                       7.62985900E-10, -3.93922840E-14,  8.29843360E+03,
                      -1.54801800E+01])))

species(name='C3H6',
        atoms='C:3 H:6',
        thermo=(NASA([300.00, 1388.00],
                     [ 3.94615444E-01,  2.89107662E-02, -1.54886808E-05,
                       3.88814209E-09, -3.37890352E-13,  1.06688164E+03,
                       2.19003736E+01]),
                NASA([1388.00, 5000.00],
                     [ 8.01595958E+00,  1.37023634E-02, -4.66249733E-06,
                       7.21254402E-10, -4.17370126E-14, -1.87821271E+03,
                      -2.00160668E+01])))

species(name='C3H5',
        atoms='C:3 H:5',
        thermo=(NASA([200.00, 1000.00],
                     [ 3.78794693E+00,  9.48414335E-03,  2.42343368E-05,
                      -3.65604010E-08,  1.48592356E-11,  1.86261218E+04,
                       7.82822499E+00]),
                NASA([1000.00, 6000.00],
                     [ 6.54761132E+00,  1.33152246E-02, -4.78333100E-06,
                       7.71949814E-10, -4.61930808E-14,  1.72714707E+04,
                      -9.27486841E+00])))

species(name='C3H4',
        atoms='C:3 H:4',
        thermo=(NASA([200.00, 1000.00],
                     [ 2.61307487E+00,  1.21223371E-02,  1.85405400E-05,
                      -3.45258475E-08,  1.53353389E-11,  2.15415642E+04,
                       1.02503319E+01]),
                NASA([1000.00, 6000.00],
                     [ 6.31694869E+00,  1.11336262E-02, -3.96289018E-06,
                       6.35633775E-10, -3.78749885E-14,  2.01174617E+04,
                      -1.09718862E+01])))

species(name='C2H3',
        atoms='C:2 H:3',
        thermo=(NASA([300.00, 1000.00],
                     [ 2.45927600E+00,  7.37147600E-03,  2.10987300E-06,
                      -1.32164200E-09, -1.18478400E-12,  3.33522500E+04,
                       1.15562000E+01]),
                NASA([1000.00, 5000.00],
                     [ 5.93346800E+00,  4.01774600E-03, -3.96674000E-07,
                      -1.44126700E-10,  2.37864400E-14,  3.18543500E+04,
                      -8.53031300E+00])))

species(name='C2H5',
        atoms='C:2 H:5',
        thermo=(NASA([300.00, 1000.00],
                     [ 2.69070200E+00,  8.71913300E-03,  4.41983900E-06,
                       9.33870300E-10, -3.92777300E-12,  1.28704000E+04,
                       1.21382000E+01]),
                NASA([1000.00, 5000.00],
                     [ 7.19048000E+00,  6.48407700E-03, -6.42806500E-07,
                      -2.34787900E-10,  3.88087700E-14,  1.06745500E+04,
                      -1.47808900E+01])))

species(name='C2H6',
        atoms='C:2 H:6',
        thermo=(NASA([300.00, 1000.00],
                     [ 1.46253900E+00,  1.54946700E-02,  5.78050700E-06,
                      -1.25783200E-08,  4.58626700E-12, -1.12391800E+04,
                       1.44322900E+01]),
                NASA([1000.00, 4000.00],
                     [ 4.82593800E+00,  1.38404300E-02, -4.55725900E-06,
                       6.72496700E-10, -3.59816100E-14, -1.27177900E+04,
                      -5.23950700E+00])))

species(name='NO',
        atoms='N:1 O:1',
        thermo=(NASA([300.00, 1000.00],
                     [ 3.37654200E+00,  1.25306300E-03, -3.30275100E-06,
                       5.21781000E-09, -2.44626300E-12,  9.81796100E+03,
                       5.82959000E+00]),
                NASA([1000.00, 5000.00],
                     [ 3.24543500E+00,  1.26913800E-03, -5.01589000E-07,
                       9.16928300E-11, -6.27541900E-15,  9.80084000E+03,
                       6.41729400E+00])))

species(name='N',
        atoms='N:1',
        thermo=(NASA([300.00, 1000.00],
                     [ 2.50307100E+00, -2.18001800E-05,  5.42052900E-08,
                      -5.64756000E-11,  2.09990400E-14,  5.60989000E+04,
                       4.16756600E+00]),
                NASA([1000.00, 5000.00],
                     [ 2.45026800E+00,  1.06614600E-04, -7.46533700E-08,
                       1.87965200E-11, -1.02598400E-15,  5.61160400E+04,
                       4.44875800E+00])))

species(name='C(s)',
        atoms='C:1',
        thermo=(NASA([300.00, 1000.00],
                     [ 2.50307100E+00, -2.18001800E-05,  5.42052900E-08,
                      -5.64756000E-11,  2.09990400E-14,  5.60989000E+04,
                       4.16756600E+00]),
                NASA([1000.00, 5000.00],
                     [ 2.45026800E+00,  1.06614600E-04, -7.46533700E-08,
                       1.87965200E-11, -1.02598400E-15,  5.61160400E+04,
                       4.44875800E+00])))

#-------------------------------------------------------------------------------
# Reaction data
#-------------------------------------------------------------------------------

# Reaction 1
reaction('O + N2 <=> NO + N', [1.100000e+10, 0.0, 38000.0])
# CGS

# Reaction 2
reaction('N + O2 <=> NO + O', [6.400000e+09, 1.0, 3150.0])
# CGS

# Reaction 3
reaction('N + OH <=> NO + H', [4.100000e+13, 0.0, 0.0])
# CGS

# Reaction 4
reaction('C7H16 + H <=> C7H15-1 + H2', [5.600000e+07, 2.0, 7667.0])

# Reaction 5
reaction('C7H16 + H <=> C7H15-2 + H2', [4.380000e+07, 2.0, 4750.0])

# Reaction 6
reaction('C7H16 + OH <=> C7H15-1 + H2O', [8.610000e+09, 1.1, 1815.0])

# Reaction 7
reaction('C7H16 + OH <=> C7H15-2 + H2O', [4.500000e+09, 1.3, 690.5])

# Reaction 8
reaction('C7H16 + HO2 <=> C7H15-1 + H2O2', [1.120000e+13, 0.0, 19300.0])

# Reaction 9
reaction('C7H16 + HO2 <=> C7H15-2 + H2O2', [1.650000e+13, 0.0, 16950.0])

# Reaction 10
reaction('C7H16 + O2 <=> C7H15-1 + HO2', [2.500000e+13, 0.0, 48810.0])

# Reaction 11
reaction('C7H16 + O2 <=> C7H15-2 + HO2', [2.000000e+14, 0.0, 47380.0])

# Reaction 12
reaction('C7H15-1 + O2 <=> C7H15O2', [2.000000e+12, 0.0, 0.0])

# Reaction 13
reaction('C7H15-2 + O2 <=> C7H15O2', [2.000000e+12, 0.0, 0.0])

# Reaction 14
reaction('C7H15O2 <=> C7H14O2H', [6.000000e+11, 0.0, 20380.0])

# Reaction 15
reaction('C7H14O2H + O2 <=> C7H14O2HO2', [4.600000e+11, 0.0, 0.0])

# Reaction 16
reaction('C7H14O2HO2 <=> C7KET12 + OH', [1.000000e+09, 0.0, 7480.0])

# Reaction 17
reaction('C7KET12 <=> C5H11CHO + CH2O + O', [1.050000e+16, 0.0, 41100.0])
#   16

# Reaction 18
reaction('C5H11CHO + O2 <=> C5H11CO + HO2', [2.000000e+13, 0.5, 42200.0])

# Reaction 19
reaction('C5H11CHO + OH <=> C5H11CO + H2O', [1.000000e+13, 0.0, 0.0])

# Reaction 20
reaction('C5H11CHO + H <=> C5H11CO + H2', [4.000000e+13, 0.0, 4200.0])

# Reaction 21
reaction('C5H11CHO + O <=> C5H11CO + OH', [5.000000e+12, 0.0, 1790.0])

# Reaction 22
reaction('C5H11CHO + HO2 <=> C5H11CO + H2O2', [2.800000e+12, 0.0, 13600.0])

# Reaction 23
reaction('C5H11CHO + CH3 <=> C5H11CO + CH4', [1.700000e+12, 0.0, 8440.0])

# Reaction 24
reaction('C5H11CHO + CH3O2 <=> C5H11CO + CH4O2', [1.000000e+12, 0.0, 9500.0])

# Reaction 25
reaction('C5H11CO <=> C5H11 + CO', [1.000000e+11, 0.0, 9600.0])

# Reaction 26
reaction('C5H11 <=> C2H4 + C3H7', [3.200000e+13, 0.0, 28300.0])

# Reaction 27
reaction('C7H15-1 <=> C2H4 + C5H11', [2.500000e+13, 0.0, 28810.0])

# Reaction 28
reaction('C7H15-2 <=> C4H9 + C3H6', [2.200000e+13, 0.0, 28100.0])

# Reaction 29
reaction('C7H15-1 <=> C7H15-2', [3.600000e+16, 0.0, 80700.0])

# Reaction 30
reaction('C4H9 <=> C2H5 + C2H4', [2.500000e+13, 0.0, 28810.0])

# Reaction 31
reaction('C3H7 <=> C2H4 + CH3', [9.600000e+13, 0.0, 30950.0])

# Reaction 32
reaction('C3H7 <=> C3H6 + H', [1.250000e+14, 0.0, 36900.0])

# Reaction 33
reaction('C3H7 + O2 <=> C3H6 + HO2', [1.000000e+12, 0.0, 4980.0])

# Reaction 34
reaction('C3H6 <=> C2H3 + CH3', [3.150000e+15, 0.0, 85500.0])

# Reaction 35
reaction('C3H6 + H <=> C3H5 + H2', [5.000000e+12, 0.0, 1500.0])

# Reaction 36
reaction('C3H6 + CH3 <=> C3H5 + CH4', [9.000000e+12, 0.0, 8480.0])

# Reaction 37
reaction('C3H5 <=> C3H4 + H', [4.000000e+13, 0.0, 69760.0])

# Reaction 38
reaction('C3H5 + H <=> C3H4 + H2', [1.000000e+13, 0.0, 0.0])

# Reaction 39
reaction('C3H5 + O2 <=> C3H4 + HO2', [6.000000e+11, 0.0, 10000.0])

# Reaction 40
reaction('C3H4 + OH <=> C2H3 + CH2O', [1.000000e+12, 0.0, 0.0])

# Reaction 41
reaction('C3H4 + OH <=> C2H4 + HCO', [1.000000e+12, 0.0, 0.0])
# C2H5  + O             = CH3HCO + H           5.300E+13  0.0       0.0!     23
# C2H4  + HO2           = HCOOCH3 + H          4.040E+09  0.0    -840. !     24
# C2H4  + HO2           = CH3HCO + OH          2.200E+13  0.0   17200.0!     25
# C2H4  + CH3O          = CH3HCO + CH3         3.000E+13  0.0     14500.0        !     26
# C2H4  + CH3O2         = CH3HCO + CH3O        7.000E+13  0.0     14500.0        !     27
# C2H3  + OH            = CH3HCO               3.000E+13  0.0       0.0!     28
# CH3HCO                = CH3     + HCO        7.080E+15  0.00  81760. !     28
# CH3HCO                = CH3CO   + H          5.000E+14  0.00  87860. !     29
# CH3HCO  + O2          = CH3CO   + HO2        2.000E+13  0.50  42200. !     30
# CH3HCO  + H           = CH3CO   + H2         4.100E+13  0.00   4200. !     31
# CH3HCO  + OH          = CH3CO   + H2O        1.000E+13  0.00      0. !     32
# CH3HCO  + O           = CH3CO   + OH         5.800E+12  0.00   1790. !     33
# CH3HCO  + CH3         = CH3CO   + CH4        1.700E+12  0.0    8440.0!     34
# CH3HCO  + CH2         = CH3CO   + CH3        1.660E+12  0.0    3510. !     35
# CH3HCO  + HO2         = CH3CO   + H2O2       1.700E+12  0.00  10700. !     36
# CH3HCO  + CH3O2       = CH3CO   + CH4O2      1.150E+11  0.0   10000.0!     37
# CH3CO + O             = CH3   + CO2          1.000E+13  0.00      0. !     38
# CH3CO + H             = CH3   + HCO          1.000E+14  0.0       0. !     39
# CH3CO + OH            = CH3   + CO  + OH     3.000E+13  0.0       0. !     40
# CH3CO + HO2           = CH3   + CO2 + OH     3.000E+13  0.0       0. !     42
# CH3CO + CH3           = C2H6  + CO           5.000E+13  0.00      0. !     43
# HCOOCH3               = HCO   + CH3O         3.200E+09  1.60  51800. !     44
# HCOOCH3               = CO2   + CH4          2.950E+09  0.00  24500. !     45
# HCOOCH3 + O           = COOCH3 + OH          5.300E+11  0.60   1470. !     46
# HCOOCH3 + H           = COOCH3 + H2          1.600E+08  1.60   1000. !     47
# HCOOCH3 + OH          = COOCH3 + H2O         1.200E+09  1.30   -150. !     48
# HCOOCH3 + HO2         = COOCH3 + H2O2        4.000E+12  0.00   6100. !     49
# HCOOCH3 + CH3         = COOCH3 + CH4         1.000E-02  4.50   1800. !     50
# COOCH3                = CH3    + CO2         8.730E+42 -8.62  22400. !     51

# Reaction 42
reaction('CH3O + CO <=> CH3 + CO2', [1.570000e+14, 0.0, 11800.0])
# CGS  52

# Reaction 43
three_body_reaction('CH3O + M <=> CH2O + H + M', [1.000000e+14, 0.0, 25000.0])
# CGS  53

# Reaction 44
reaction('CH3O + H <=> CH2O + H2', [2.000000e+13, 0.0, 0.0])
# CGS  54

# Reaction 45
reaction('CH3O + OH <=> CH2O + H2O', [1.000000e+13, 0.0, 0.0])
# CGS  55

# Reaction 46
reaction('CH3O + O <=> CH2O + OH', [1.000000e+13, 0.0, 0.0])
# CGS  56

# Reaction 47
reaction('CH3O + O2 <=> CH2O + HO2', [1.200000e+11, 0.0, 2600.0])
# CGS  57   10

# Reaction 48
reaction('CH3 + HO2 <=> CH3O + OH', [5.000000e+13, 0.0, 0.0])
# CGS  58

# Reaction 49
reaction('CH3 + O2 <=> CH3O + O', [4.670000e+13, 0.0, 30000.0])
# CGS  59

# Reaction 50
reaction('CH3 + O2 <=> CH2O + OH', [3.800000e+11, 0.0, 9000.0])
# CGS  60 4.8  9000

# Reaction 51
reaction('CH3 + O2 <=> CH3O2', [3.020000e+59, -15.0, 17204.0])
# CGS  61 3.02

# Reaction 52
reaction('CH3O2 + HO2 <=> CH4O2 + O2', [4.630000e+11, 0.0, -2583.0])
# CGS 24

# Reaction 53
reaction('CH3O2 + CH4 <=> CH4O2 + CH3', [1.810000e+11, 0.0, 18480.0])
# CGS 25

# Reaction 54
reaction('CH3O2 + CH3 <=> CH3O + CH3O', [2.410000e+13, 0.0, 0.0])
# CGS 26  2.410E+13

# Reaction 55
reaction('CH3O2 + O <=> CH3O + O2', [3.610000e+13, 0.0, 0.0])
# CGS 27

# Reaction 56
reaction('CH3O2 + H <=> CH3O + OH', [9.640000e+13, 0.0, 0.0])
# CGS 28
